version 2
run General-0-20120117-15:25:42-3948
attr configname General
attr datetime 20120117-15:25:42
attr experiment General
attr inifile C:/omnetpp/omnetpp-4.1/samples/dsp2/omnetpp.ini
attr iterationvars ""
attr iterationvars2 $repetition=0
attr measurement ""
attr network SimulationNet
attr processid 3948
attr repetition 0
attr replication #0
attr resultdir results
attr runnumber 0
attr seedset 0

statistic SimulationNet.brokers[0].app 	"Subscribe Latency (Client address 1)"
field count 1
field mean 0.62438152466
field stddev -1.#IND
field sum 0.62438152466
field sqrsum 0.38985228833675
field min 0.62438152466
field max 0.62438152466
bin	-INF	0
bin	0.12438152466	0
bin	0.15771485799333	0
bin	0.19104819132667	0
bin	0.22438152466	0
bin	0.25771485799333	0
bin	0.29104819132667	0
bin	0.32438152466	0
bin	0.35771485799333	0
bin	0.39104819132667	0
bin	0.42438152466	0
bin	0.45771485799333	0
bin	0.49104819132667	0
bin	0.52438152466	0
bin	0.55771485799333	0
bin	0.59104819132667	0
bin	0.62438152466	1
bin	0.65771485799333	0
bin	0.69104819132667	0
bin	0.72438152466	0
bin	0.75771485799333	0
bin	0.79104819132667	0
bin	0.82438152466	0
bin	0.85771485799333	0
bin	0.89104819132667	0
bin	0.92438152466	0
bin	0.95771485799333	0
bin	0.99104819132667	0
bin	1.02438152466	0
bin	1.0577148579933	0
bin	1.0910481913267	0
bin	1.12438152466	0
statistic SimulationNet.brokers[0].app 	"Subscribe Latency (Client address 2)"
field count 2
field mean 0.949368618173
field stddev 0.61718356480005
field sum 1.898737236346
field sqrsum 2.1835170990027
field min 0.512953934266
field max 1.38578330208
bin	-INF	0
bin	0.076539250359	0
bin	0.13472787487993	0
bin	0.19291649940087	0
bin	0.2511051239218	0
bin	0.30929374844273	0
bin	0.36748237296367	0
bin	0.4256709974846	0
bin	0.48385962200553	1
bin	0.54204824652647	0
bin	0.6002368710474	0
bin	0.65842549556833	0
bin	0.71661412008927	0
bin	0.7748027446102	0
bin	0.83299136913113	0
bin	0.89117999365207	0
bin	0.949368618173	0
bin	1.0075572426939	0
bin	1.0657458672149	0
bin	1.1239344917358	0
bin	1.1821231162567	0
bin	1.2403117407777	0
bin	1.2985003652986	0
bin	1.3566889898195	1
bin	1.4148776143405	0
bin	1.4730662388614	0
bin	1.5312548633823	0
bin	1.5894434879033	0
bin	1.6476321124242	0
bin	1.7058207369451	0
bin	1.7640093614661	0
bin	1.822197985987	0
statistic SimulationNet.brokers[0].app 	"Subscribe Latency (Client address 3)"
field count 3
field mean 0.64041171700667
field stddev 0.24826609439024
field sum 1.92123515102
field sqrsum 1.3536536090859
field min 0.418327227191
field max 0.908440945965
bin	-INF	0
bin	0.173270367804	0
bin	0.20594461572227	0
bin	0.23861886364053	0
bin	0.2712931115588	0
bin	0.30396735947707	0
bin	0.33664160739533	0
bin	0.3693158553136	0
bin	0.40199010323187	1
bin	0.43466435115013	0
bin	0.4673385990684	0
bin	0.50001284698667	0
bin	0.53268709490493	0
bin	0.5653613428232	1
bin	0.59803559074147	0
bin	0.63070983865973	0
bin	0.663384086578	0
bin	0.69605833449627	0
bin	0.72873258241453	0
bin	0.7614068303328	0
bin	0.79408107825107	0
bin	0.82675532616933	0
bin	0.8594295740876	0
bin	0.89210382200587	1
bin	0.92477806992413	0
bin	0.9574523178424	0
bin	0.99012656576067	0
bin	1.0228008136789	0
bin	1.0554750615972	0
bin	1.0881493095155	0
bin	1.1208235574337	0
bin	1.153497805352	0
scalar SimulationNet.brokers[0].consistency 	#packetsDroped 	0
scalar SimulationNet.brokers[0].fault 	#dataPacketsSent 	97
scalar SimulationNet.brokers[0].fault 	#nackPacketsSent 	10
statistic SimulationNet.clients[0].user 	requestType:stats
field count 29
field mean 1.1034482758621
field stddev 0.3099340466946
field sum 32
field sqrsum 38
field min 1
field max 2
attr interpolationmode  none
attr source  arrival
attr title  "Request Type, stats"
statistic SimulationNet.clients[0].user 	requestType:histogram
field count 29
field mean 1.1034482758621
field stddev 0.3099340466946
field sum 32
field sqrsum 38
field min 1
field max 2
attr interpolationmode  none
attr source  arrival
attr title  "Request Type, histogram"
bin	-INF	0
bin	0	0
bin	1	26
bin	2	3
bin	3	0
statistic SimulationNet.clients[0].app 	"Publish Latency (Client address 1)"
field count 3
field mean 1.1540194821
field stddev 0.79062037965889
field sum 3.4620584463
field sqrsum 5.245444064663
field min 0.261653428286
field max 1.767063841353
bin	-INF	0
bin	-0.4910517782475	0
bin	-0.39069108404303	0
bin	-0.29033038983857	0
bin	-0.1899696956341	0
bin	-0.089609001429633	0
bin	0.010751692774833	0
bin	0.1111123869793	0
bin	0.21147308118377	1
bin	0.31183377538823	0
bin	0.4121944695927	0
bin	0.51255516379717	0
bin	0.61291585800163	0
bin	0.7132765522061	0
bin	0.81363724641057	0
bin	0.91399794061503	0
bin	1.0143586348195	0
bin	1.114719329024	0
bin	1.2150800232284	0
bin	1.3154407174329	0
bin	1.4158014116374	1
bin	1.5161621058418	0
bin	1.6165228000463	0
bin	1.7168834942508	1
bin	1.8172441884552	0
bin	1.9176048826597	0
bin	2.0179655768642	0
bin	2.1183262710686	0
bin	2.2186869652731	0
bin	2.3190476594776	0
bin	2.419408353682	0
bin	2.5197690478865	0
statistic SimulationNet.clients[0].app 	"Publish Latency (Client address 2)"
field count 3
field mean 1.2356716829923
field stddev 0.35750712492462
field sum 3.707015048977
field sqrsum 4.836276213191
field min 0.857898939058
field max 1.568700900176
bin	-INF	0
bin	0.502497958499	0
bin	0.54988475590687	0
bin	0.59727155331473	0
bin	0.6446583507226	0
bin	0.69204514813047	0
bin	0.73943194553833	0
bin	0.7868187429462	0
bin	0.83420554035407	1
bin	0.88159233776193	0
bin	0.9289791351698	0
bin	0.97636593257767	0
bin	1.0237527299855	0
bin	1.0711395273934	0
bin	1.1185263248013	0
bin	1.1659131222091	0
bin	1.213299919617	0
bin	1.2606867170249	1
bin	1.3080735144327	0
bin	1.3554603118406	0
bin	1.4028471092485	0
bin	1.4502339066563	0
bin	1.4976207040642	0
bin	1.5450075014721	1
bin	1.5923942988799	0
bin	1.6397810962878	0
bin	1.6871678936957	0
bin	1.7345546911035	0
bin	1.7819414885114	0
bin	1.8293282859193	0
bin	1.8767150833271	0
bin	1.924101880735	0
statistic SimulationNet.clients[0].app 	"Publish Latency (Client address 3)"
field count 4
field mean 2.4223949738277
field stddev 2.6783704451555
field sum 9.689579895311
field sqrsum 44.992994361351
field min 0.211516316904
field max 5.637125518168
bin	-INF	0
bin	-2.501288283728	0
bin	-2.1395810036437	0
bin	-1.7778737235595	0
bin	-1.4161664434752	0
bin	-1.0544591633909	0
bin	-0.69275188330667	0
bin	-0.3310446032224	0
bin	0.030662676861867	2
bin	0.39236995694613	0
bin	0.7540772370304	0
bin	1.1157845171147	0
bin	1.4774917971989	0
bin	1.8391990772832	0
bin	2.2009063573675	0
bin	2.5626136374517	0
bin	2.924320917536	0
bin	3.2860281976203	1
bin	3.6477354777045	0
bin	4.0094427577888	0
bin	4.3711500378731	0
bin	4.7328573179573	0
bin	5.0945645980416	0
bin	5.4562718781259	1
bin	5.8179791582101	0
bin	6.1796864382944	0
bin	6.5413937183787	0
bin	6.9031009984629	0
bin	7.2648082785472	0
bin	7.6265155586315	0
bin	7.9882228387157	0
bin	8.3499301188	0
scalar SimulationNet.clients[0].consistency 	#packetsDroped 	0
scalar SimulationNet.clients[0].fault 	#dataPacketsSent 	31
scalar SimulationNet.clients[0].fault 	#nackPacketsSent 	1
statistic SimulationNet.clients[1].user 	requestType:stats
field count 39
field mean 1.1025641025641
field stddev 0.30735474060473
field sum 43
field sqrsum 51
field min 1
field max 2
attr interpolationmode  none
attr source  arrival
attr title  "Request Type, stats"
statistic SimulationNet.clients[1].user 	requestType:histogram
field count 39
field mean 1.1025641025641
field stddev 0.30735474060473
field sum 43
field sqrsum 51
field min 1
field max 2
attr interpolationmode  none
attr source  arrival
attr title  "Request Type, histogram"
bin	-INF	0
bin	0	0
bin	1	35
bin	2	4
bin	3	0
statistic SimulationNet.clients[1].app 	"Publish Latency (Client address 1)"
field count 12
field mean 1.6022519395145
field stddev 1.1283906938611
field sum 19.227023274174
field sqrsum 44.812456470052
field min 0.400031327177
field max 3.84114436922
bin	-INF	0
bin	-1.3205251938445	0
bin	-1.0911176577083	0
bin	-0.8617101215721	0
bin	-0.6323025854359	0
bin	-0.4028950492997	0
bin	-0.1734875131635	0
bin	0.0559200229727	0
bin	0.2853275591089	3
bin	0.5147350952451	1
bin	0.7441426313813	2
bin	0.9735501675175	0
bin	1.2029577036537	0
bin	1.4323652397899	0
bin	1.6617727759261	1
bin	1.8911803120623	0
bin	2.1205878481985	1
bin	2.3499953843347	2
bin	2.5794029204709	1
bin	2.8088104566071	0
bin	3.0382179927433	0
bin	3.2676255288795	0
bin	3.4970330650157	0
bin	3.7264406011519	1
bin	3.9558481372881	0
bin	4.1852556734243	0
bin	4.4146632095605	0
bin	4.6440707456967	0
bin	4.8734782818329	0
bin	5.1028858179691	0
bin	5.3322933541053	0
bin	5.5617008902415	0
statistic SimulationNet.clients[1].app 	"Publish Latency (Client address 2)"
field count 10
field mean 2.1545037880511
field stddev 1.1863910758574
field sum 21.545037880511
field sqrsum 59.086579791132
field min 1.083278164842
field max 4.588392717566
bin	-INF	0
bin	-0.66927911152	0
bin	-0.43560480800507	0
bin	-0.20193050449013	0
bin	0.0317437990248	0
bin	0.26541810253973	0
bin	0.49909240605467	0
bin	0.7327667095696	0
bin	0.96644101308453	2
bin	1.2001153165995	2
bin	1.4337896201144	1
bin	1.6674639236293	1
bin	1.9011382271443	0
bin	2.1348125306592	1
bin	2.3684868341741	0
bin	2.6021611376891	0
bin	2.835835441204	0
bin	3.0695097447189	1
bin	3.3031840482339	1
bin	3.5368583517488	0
bin	3.7705326552637	0
bin	4.0042069587787	0
bin	4.2378812622936	0
bin	4.4715555658085	1
bin	4.7052298693235	0
bin	4.9389041728384	0
bin	5.1725784763533	0
bin	5.4062527798683	0
bin	5.6399270833832	0
bin	5.8736013868981	0
bin	6.1072756904131	0
bin	6.340949993928	0
statistic SimulationNet.clients[1].app 	"Publish Latency (Client address 3)"
field count 19
field mean 1.6393197339286
field stddev 1.0767940299682
field sum 31.147074944644
field sqrsum 71.930751504462
field min 0.382933357277
field max 4.317000263771
bin	-INF	0
bin	-1.58410009597	0
bin	-1.3218289688704	0
bin	-1.0595578417708	0
bin	-0.7972867146712	0
bin	-0.5350155875716	0
bin	-0.272744460472	0
bin	-0.0104733333724	0
bin	0.2517977937272	2
bin	0.5140689208268	3
bin	0.7763400479264	2
bin	1.038611175026	1
bin	1.3008823021256	2
bin	1.5631534292252	2
bin	1.8254245563248	2
bin	2.0876956834244	2
bin	2.349966810524	0
bin	2.6122379376236	0
bin	2.8745090647232	0
bin	3.1367801918228	1
bin	3.3990513189224	1
bin	3.661322446022	0
bin	3.9235935731216	0
bin	4.1858647002212	1
bin	4.4481358273208	0
bin	4.7104069544204	0
bin	4.97267808152	0
bin	5.2349492086196	0
bin	5.4972203357192	0
bin	5.7594914628188	0
bin	6.0217625899184	0
bin	6.284033717018	0
scalar SimulationNet.clients[1].consistency 	#packetsDroped 	0
scalar SimulationNet.clients[1].fault 	#dataPacketsSent 	41
scalar SimulationNet.clients[1].fault 	#nackPacketsSent 	9
statistic SimulationNet.clients[2].user 	requestType:stats
field count 44
field mean 1.1136363636364
field stddev 0.38675207435646
field sum 49
field sqrsum 61
field min 1
field max 3
attr interpolationmode  none
attr source  arrival
attr title  "Request Type, stats"
statistic SimulationNet.clients[2].user 	requestType:histogram
field count 44
field mean 1.1136363636364
field stddev 0.38675207435646
field sum 49
field sqrsum 61
field min 1
field max 3
attr interpolationmode  none
attr source  arrival
attr title  "Request Type, histogram"
bin	-INF	0
bin	0	0
bin	1	40
bin	2	3
bin	3	1
bin	4	0
statistic SimulationNet.clients[2].app 	"Publish Latency (Client address 1)"
field count 10
field mean 2.2431461698412
field stddev 1.2683746838559
field sum 22.431461698412
field sqrsum 64.796016440551
field min 0.584600043663
field max 4.882240815558
bin	-INF	0
bin	-1.5642203422845	0
bin	-1.2777109574915	0
bin	-0.9912015726985	0
bin	-0.7046921879055	0
bin	-0.4181828031125	0
bin	-0.1316734183195	0
bin	0.1548359664735	0
bin	0.4413453512665	1
bin	0.7278547360595	1
bin	1.0143641208525	1
bin	1.3008735056455	0
bin	1.5873828904385	1
bin	1.8738922752315	0
bin	2.1604016600245	1
bin	2.4469110448175	2
bin	2.7334204296105	2
bin	3.0199298144035	0
bin	3.3064391991965	0
bin	3.5929485839895	0
bin	3.8794579687825	0
bin	4.1659673535755	0
bin	4.4524767383685	0
bin	4.7389861231615	1
bin	5.0254955079545	0
bin	5.3120048927475	0
bin	5.5985142775405	0
bin	5.8850236623335	0
bin	6.1715330471265	0
bin	6.4580424319195	0
bin	6.7445518167125	0
bin	7.0310612015055	0
statistic SimulationNet.clients[2].app 	"Publish Latency (Client address 2)"
field count 9
field mean 1.6635217386698
field stddev 1.2622069791373
field sum 14.971695648028
field sqrsum 37.651072840706
field min 0.46588289145
field max 3.607766471143
bin	-INF	0
bin	-1.1050588983965	0
bin	-0.89559999308363	0
bin	-0.68614108777077	0
bin	-0.4766821824579	0
bin	-0.26722327714503	0
bin	-0.057764371832167	0
bin	0.1516945334807	0
bin	0.36115343879357	2
bin	0.57061234410643	2
bin	0.7800712494193	0
bin	0.98953015473217	1
bin	1.198989060045	0
bin	1.4084479653579	0
bin	1.6179068706708	1
bin	1.8273657759836	0
bin	2.0368246812965	0
bin	2.2462835866094	0
bin	2.4557424919222	1
bin	2.6652013972351	0
bin	2.874660302548	0
bin	3.0841192078608	0
bin	3.2935781131737	0
bin	3.5030370184866	2
bin	3.7124959237994	0
bin	3.9219548291123	0
bin	4.1314137344252	0
bin	4.340872639738	0
bin	4.5503315450509	0
bin	4.7597904503638	0
bin	4.9692493556766	0
bin	5.1787082609895	0
statistic SimulationNet.clients[2].app 	"Publish Latency (Client address 3)"
field count 12
field mean 1.9291195097782
field stddev 1.4504068437887
field sum 23.149434117338
field sqrsum 67.79850513368
field min 0.512862765021
field max 4.629868190535
bin	-INF	0
bin	-1.545639947736	0
bin	-1.2711729193684	0
bin	-0.9967058910008	0
bin	-0.7222388626332	0
bin	-0.4477718342656	0
bin	-0.173304805898	0
bin	0.1011622224696	0
bin	0.3756292508372	1
bin	0.6500962792048	2
bin	0.9245633075724	3
bin	1.19903033594	1
bin	1.4734973643076	0
bin	1.7479643926752	1
bin	2.0224314210428	0
bin	2.2968984494104	0
bin	2.571365477778	1
bin	2.8458325061456	0
bin	3.1202995345132	0
bin	3.3947665628808	0
bin	3.6692335912484	2
bin	3.943700619616	0
bin	4.2181676479836	0
bin	4.4926346763512	1
bin	4.7671017047188	0
bin	5.0415687330864	0
bin	5.316035761454	0
bin	5.5905027898216	0
bin	5.8649698181892	0
bin	6.1394368465568	0
bin	6.4139038749244	0
bin	6.688370903292	0
scalar SimulationNet.clients[2].consistency 	#packetsDroped 	0
scalar SimulationNet.clients[2].fault 	#dataPacketsSent 	47
scalar SimulationNet.clients[2].fault 	#nackPacketsSent 	5
statistic SimulationNet.internet 	delayOnInternet:stats
field count 241
field mean 0.80677384543708
field stddev 0.81494296937972
field sum 194.43249675034
field sqrsum 316.25474348314
field min 0.0020158900780108
field max 4.4427374530591
attr interpolationmode  none
attr source  delay
attr title  "Delay on Internet, stats"
statistic SimulationNet.internet 	delayOnInternet:histogram
field count 241
field mean 0.80677384543708
field stddev 0.81494296937972
field sum 194.43249675034
field sqrsum 316.25474348314
field min 0.0020158900780108
field max 4.4427374530591
attr interpolationmode  none
attr source  delay
attr title  "Delay on Internet, histogram"
bin	-INF	0
bin	-1.5417320641945	0
bin	-1.3333448433512	0
bin	-1.1249576225079	0
bin	-0.91657040166462	0
bin	-0.70818318082134	0
bin	-0.49979595997805	0
bin	-0.29140873913477	0
bin	-0.083021518291482	29
bin	0.1253657025518	47
bin	0.33375292339509	43
bin	0.54214014423837	34
bin	0.75052736508166	21
bin	0.95891458592494	13
bin	1.1673018067682	7
bin	1.3756890276115	14
bin	1.5840762484548	5
bin	1.7924634692981	5
bin	2.0008506901414	3
bin	2.2092379109846	4
bin	2.4176251318279	4
bin	2.6260123526712	5
bin	2.8343995735145	0
bin	3.0427867943578	2
bin	3.2511740152011	1
bin	3.4595612360444	1
bin	3.6679484568876	2
bin	3.8763356777309	0
bin	4.0847228985742	0
bin	4.2931101194175	1
bin	4.5014973402608	0
bin	4.7098845611041	0
